This the simulation setting for setting up GEOS-Chem nested simulation for the WE-CAN emission paper.
